*LTspice
*
*DRDN005W
*Complex array for relay drivers. NPN.
*AE01018005
*
*netlist
.include DRDN005W.cir
*
*params
.param VSOURCE=12
.param RPD=10K
.param RB=1K
.param L_COIL=100u
.param R_COIL=0.2
*
.param VCTRL=5
.param TR=1u
.param TF=1u
.param TDELAY=1000m
.param TDUTY=1000m
.param TCYCLE=2000m
*
*transient response
.param x_base=3000m
.tran 0 {x_base} 0 uic startup
*
.backanno
