*SRC=DRDN005W;DI_DRDN005W_NPN;BJTs NPN; Si;  80.0V  0.500A  219MHz   Diodes Inc. Transistor 
.MODEL DI_DRDN005W_NPN  NPN (IS=50.8f NF=1.00 BF=479 VAF=161 
+ IKF=91.1m ISE=9.99p NE=2.00 BR=4.00 NR=1.00 
+ VAR=16.0 IKR=0.225 RE=0.103 RB=0.412 RC=41.2m 
+ XTB=1.5 CJE=58.7p VJE=1.10 MJE=0.500 CJC=18.9p VJC=0.300 
+ MJC=0.300 TF=576p TR=110n EG=1.12 )

*SRC=DRDN005W;DI_DRDN005W_DIODE;Diodes;Si;  75.0V  0.250A  4.00ns   Diodes Inc. Switching Diode
.MODEL DI_DRDN005W_DIODE D  ( IS=300n RS=0.422 BV=75.0 IBV=2.50u
+ CJO=1.99p  M=0.333 N=2.77 TT=5.76n )